16
   12   13   14   15
C    0.0000 0.0000 0.0000
Cu   -1.8338 -1.7590 3.1555
Cu   1.6198 -1.9856 3.1555
N    0.6047 -1.0100 4.5980
N    -0.7114 -0.8893 4.5573
N    -1.1399 -0.2744 5.6206
N    1.0832 -0.4511 5.6876
N    0.6047 -1.0100 1.7131
N    -0.7114 -0.8893 1.7538
N    -1.1399 -0.2744 0.6905
N    1.0832 -0.4511 0.6235
C    0.0000 0.0000 6.3111
X    0.0189 0.2415 -0.4374
X    -2.2290 -2.0652 3.1555
X    1.9803 -2.3320 3.1555
X    0.0189 0.2415 6.7485
   0    9 A   
   0   10 A   
   1    4 S   
   1    8 S   
   2    3 S   
   2    7 S   
   3    4 A   
   3    6 A   
   4    5 A   
   5   11 A   
   6   11 A   
   7    2 S   
   7    8 A   
   7   10 A   
   8    1 S   
   8    9 A   
  12    0 S   
  13    1 S   
  14    2 S   
  15   11 S   
