14
   10   11   12   13
Ga   0.0000 0.0000 0.0000
Ga   3.3670 0.0000 0.0000
O    0.6007 -1.2334 1.4402
O    2.7663 -1.2334 -1.4402
O    1.6835 0.8761 0.0000
H    1.6835 1.6925 0.0000
C    1.6835 -1.4812 1.9287
C    1.6835 -1.4812 -1.9287
O    2.7663 -1.2334 1.4402
O    0.6007 -1.2334 -1.4402
X    -0.4378 0.2414 0.0000
X    3.8048 0.2414 0.0000
X    1.6835 -1.7074 2.3747
X    1.6835 -1.7074 -2.3747
   0    2 S   
   0    4 S   
   0    9 S   
   1    3 S   
   1    4 S   
   1    8 S   
   2    6 A   
   3    1 S   
   3    7 A   
   4    5 S   
   6    8 A   
   7    9 A   
   9    0 S   
  10    0 S   
  11    1 S   
  12    6 S   
  13    7 S   
