14
   10   11   12   13
V    0.0000 0.0000 0.0000
V    -0.6301 -3.3838 0.0000
H    -0.7055 -1.7061 1.5451
C    -2.0162 -1.4691 -1.7802
C    1.4141 -1.8974 -1.7111
O    -0.3636 -1.6842 0.9065
O    0.6652 -2.8831 -1.5089
O    -1.2386 -0.5052 -1.5569
O    -2.1001 -2.5306 -1.1037
O    1.5260 -0.8873 -0.9638
X    -0.0392 0.4631 0.1843
X    -0.5940 -3.8734 0.0948
X    -2.2798 -1.2140 -2.1199
X    1.6790 -2.1457 -2.0548
   0    5 S   
   0    7 S   
   0    9 S   
   1    5 S   
   1    6 S   
   1    8 S   
   2    5 S   
   3    7 A   
   3    8 A   
   4    6 A   
   4    9 A   
   5    0 S   
   5    1 S   
   7    0 S   
   8    1 S   
  10    0 S   
  11    1 S   
  12    3 S   
  13    4 S   
