12
    8    9   10   11
O    0.0000 0.0000 0.0000
Zn   -0.5710 1.4791 -1.1066
O    -1.7108 -1.4312 -0.0607
Zn   -3.1444 -0.7077 -1.1066
C    -3.1055 1.8137 0.3552
O    -3.7154 0.7714 0.0000
O    -2.0047 2.2026 -0.0607
C    -0.6099 -1.0423 0.3552
X    -0.3942 1.6340 -1.5479
X    -3.3212 -0.8627 -1.5479
X    -3.3240 2.1044 0.6983
X    -0.3914 -1.3331 0.6983
   0    1 S   
   0    7 A   
   1    6 S   
   2    3 S   
   2    7 A   
   3    5 S   
   4    5 A   
   4    6 A   
   8    1 S   
   9    3 S   
  10    4 S   
  11    7 S   
