14
   10   11   12   13
Fe   0.0000 0.0000 0.0000
Fe   4.4858 -0.8185 1.1291
P    2.4658 -1.1682 -1.5054
P    2.0200 0.3497 2.6345
O    1.3953 -0.0809 -1.4295
O    3.6719 -0.8240 -0.6555
O    1.9356 -2.5607 -1.2731
O    3.0905 -0.7376 2.5586
O    0.8139 0.0056 1.7845
O    2.5503 1.7422 2.4022
X    -0.4934 0.0168 -0.0793
X    4.9792 -0.8353 1.2083
X    2.6270 -1.1842 -1.9784
X    1.8588 0.3657 3.1075
   0    4 S   
   0    8 S   
   1    5 S   
   1    7 S   
   2    4 S   
   2    5 S   
   2    6 D   
   3    7 S   
   3    8 S   
   3    9 D   
   5    1 S   
   8    0 S   
  10    0 S   
  11    1 S   
  12    2 S   
  13    3 S   
